[TITLE]
;;Project Title/Notes
Tutorial Example

[OPTIONS]
;;Option             Value
FLOW_UNITS           CFS
INFILTRATION         MODIFIED_GREEN_AMPT
FLOW_ROUTING         ITM
LINK_OFFSETS         DEPTH
MIN_SLOPE            0
ALLOW_PONDING        NO
SKIP_STEADY_STATE    NO

START_DATE           06/27/2002
START_TIME           00:00:00
REPORT_START_DATE    06/27/2002
REPORT_START_TIME    00:00:00
END_DATE             06/27/2002
END_TIME             08:00:00
SWEEP_START          01/01
SWEEP_END            12/31
DRY_DAYS             0
REPORT_STEP          00:05:00
WET_STEP             00:15:00
DRY_STEP             01:00:00
ROUTING_STEP         0:01:00 
RULE_STEP            00:00:00

INERTIAL_DAMPING     PARTIAL
NORMAL_FLOW_LIMITED  BOTH
FORCE_MAIN_EQUATION  H-W
VARIABLE_STEP        0.75
LENGTHENING_STEP     0
MIN_SURFAREA         12.557
MAX_TRIALS           8
HEAD_TOLERANCE       0.005
SYS_FLOW_TOL         5
LAT_FLOW_TOL         5
MINIMUM_STEP         0.5
THREADS              1

[EVAPORATION]
;;Data Source    Parameters
;;-------------- ----------------
CONSTANT         0.0
DRY_ONLY         NO

[RAINGAGES]
;;Name           Format    Interval SCF      Source    
;;-------------- --------- ------ ------ ----------
Gage1            INTENSITY 1:00     1.0      TIMESERIES TS1             

[SUBCATCHMENTS]
;;Name           Rain Gage        Outlet           Area     %Imperv  Width    %Slope   CurbLen  SnowPack        
;;-------------- ---------------- ---------------- -------- -------- -------- -------- -------- ----------------
S1               Gage1            J1               4        50       400      0.5      0                        
S2               Gage1            J2               4        50       400      0.5      0                        
S3               Gage1            J3               4        25       400      0.5      0                        

[SUBAREAS]
;;Subcatchment   N-Imperv   N-Perv     S-Imperv   S-Perv     PctZero    RouteTo    PctRouted 
;;-------------- ---------- ---------- ---------- ---------- ---------- ---------- ----------
S1               0.01       0.1        0.05       0.05       25         OUTLET    
S2               0.01       0.1        0.05       0.05       25         OUTLET    
S3               0.01       0.1        0.05       0.05       25         OUTLET    

[INFILTRATION]
;;Subcatchment   Param1     Param2     Param3     Param4     Param5    
;;-------------- ---------- ---------- ---------- ---------- ----------
S1               3.5        0.5        0.26       7          0         
S2               3.5        0.5        0.26       7          0         
S3               3.5        0.5        0.26       7          0         

[JUNCTIONS]
;;Name           Elevation  MaxDepth   InitDepth  SurDepth   Aponded    Amanhole  
;;-------------- ---------- ---------- ---------- ---------- ---------- ----------
J1               96         4          0          0          0          0         
J2               90         4          0          0          0          0         
J3               93         4          0          0          0          0         
J4               88         4          0          0          0          0         
Out1             75         90         0          0          0          8000      

[CONDUITS]
;;Name           From Node        To Node          Length     Roughness  InOffset   OutOffset  InitFlow   MaxFlow    InitDepth 
;;-------------- ---------------- ---------------- ---------- ---------- ---------- ---------- ---------- ---------- ----------
C1               J1               J2               400        0.01       0          0          0          0          CONSTANT    0         
C2               J2               J4               400        0.01       0          0          0          0          CONSTANT    0         
C4               J4               Out1             400        0.01       0          10         0          0          CONSTANT    0         
C3               J3               J4               400        0.01       0          0          0          0          CONSTANT    0         

[XSECTIONS]
;;Link           Shape        Geom1            Geom2      Geom3      Geom4      Barrels    Culvert   
;;-------------- ------------ ---------------- ---------- ---------- ---------- ---------- ----------
C1               CIRCULAR     2                0          0          0          1                    
C2               CIRCULAR     2                0          0          0          1                    
C4               CIRCULAR     3                0          0          0          1                    
C3               CIRCULAR     2                0          0          0          1                    

[LANDUSES]
;;               Sweeping   Fraction   Last      
;;Name           Interval   Available  Swept     
;;-------------- ---------- ---------- ----------
Residential      0          0          0         
Undeveloped      0          0          0         

[COVERAGES]
;;Subcatchment   Land Use         Percent   
;;-------------- ---------------- ----------
S1               Residential      75        
S1               Undeveloped      25        
S2               Residential      75        
S2               Undeveloped      25        
S3               Residential      25        
S3               Undeveloped      75        

[TIMESERIES]
;;Name           Date       Time       Value     
;;-------------- ---------- ---------- ----------
TS1                         0          0         
TS1                         1          0.5       
TS1                         2          1         
TS1                         3          0.75      
TS1                         4          0.5       
TS1                         5          0.25      
TS1                         6          0         

[REPORT]
;;Reporting Options
SUBCATCHMENTS ALL
NODES ALL
LINKS ALL

[ITM_OPTIONS]
;;Option             Value
MAX_TIME_STEP        10
MAX_NUM_CELLS        200
MAX_NUM_PLOT_CELLS   100
REF_DEPTH_RATIO      95
WAVE_CELERITY        200
INITIAL_STAGE        

[TAGS]

[MAP]
DIMENSIONS 4361.095 -4578.391 6683.745 -2755.240
Units      None

[COORDINATES]
;;Node           X-Coord            Y-Coord           
;;-------------- ------------------ ------------------
J1               6575.630           -3350.840         
J2               6578.170           -4495.520         
J3               5477.010           -3326.250         
J4               5477.010           -4495.520         
Out1             4466.670           -4495.520         

[VERTICES]
;;Link           X-Coord            Y-Coord           
;;-------------- ------------------ ------------------

[Polygons]
;;Subcatchment   X-Coord            Y-Coord           
;;-------------- ------------------ ------------------
S1               6285.850           -3405.720         
S1               5695.540           -3405.720         
S1               5695.540           -2860.820         
S1               6283.010           -2860.820         
S2               6350.820           -4188.920         
S2               5715.100           -4188.920         
S2               5716.330           -3667.100         
S2               6350.820           -3666.720         
S3               5187.530           -3422.750         
S3               4517.760           -3422.750         
S3               4517.760           -2866.490         
S3               5187.530           -2866.490         

[SYMBOLS]
;;Gage           X-Coord            Y-Coord           
;;-------------- ------------------ ------------------
Gage1            5465.660           -2838.110         

